NOVO24/1726521/_ATERRAMENTO.dss
! Aterramento do neutro (no 4) dos secundarios de BT
! Reactor de 0.5 ohm entre o no 4 e a terra (no 0).
New Reactor.NEUTRO_node_1177659587 phases=1 bus1=node_1177659587.4 bus2=node_1177659587.0 R=0.5 X=0
New Reactor.NEUTRO_node_1215421525 phases=1 bus1=node_1215421525.4 bus2=node_1215421525.0 R=0.5 X=0
New Reactor.NEUTRO_node_1215422368 phases=1 bus1=node_1215422368.4 bus2=node_1215422368.0 R=0.5 X=0
New Reactor.NEUTRO_node_1215422441 phases=1 bus1=node_1215422441.4 bus2=node_1215422441.0 R=0.5 X=0
New Reactor.NEUTRO_node_1215422606 phases=1 bus1=node_1215422606.4 bus2=node_1215422606.0 R=0.5 X=0
New Reactor.NEUTRO_node_1215422680 phases=1 bus1=node_1215422680.4 bus2=node_1215422680.0 R=0.5 X=0
New Reactor.NEUTRO_node_1215422930 phases=1 bus1=node_1215422930.4 bus2=node_1215422930.0 R=0.5 X=0
New Reactor.NEUTRO_node_1215423245 phases=1 bus1=node_1215423245.4 bus2=node_1215423245.0 R=0.5 X=0
New Reactor.NEUTRO_node_1215423388 phases=1 bus1=node_1215423388.4 bus2=node_1215423388.0 R=0.5 X=0
New Reactor.NEUTRO_node_1215423683 phases=1 bus1=node_1215423683.4 bus2=node_1215423683.0 R=0.5 X=0
New Reactor.NEUTRO_node_1215424115 phases=1 bus1=node_1215424115.4 bus2=node_1215424115.0 R=0.5 X=0
New Reactor.NEUTRO_node_1215424241 phases=1 bus1=node_1215424241.4 bus2=node_1215424241.0 R=0.5 X=0
New Reactor.NEUTRO_node_1215424584 phases=1 bus1=node_1215424584.4 bus2=node_1215424584.0 R=0.5 X=0
New Reactor.NEUTRO_node_1215425202 phases=1 bus1=node_1215425202.4 bus2=node_1215425202.0 R=0.5 X=0
New Reactor.NEUTRO_node_1226018588 phases=1 bus1=node_1226018588.4 bus2=node_1226018588.0 R=0.5 X=0
New Reactor.NEUTRO_node_1233645102 phases=1 bus1=node_1233645102.4 bus2=node_1233645102.0 R=0.5 X=0
New Reactor.NEUTRO_node_1243332100 phases=1 bus1=node_1243332100.4 bus2=node_1243332100.0 R=0.5 X=0
New Reactor.NEUTRO_node_1266584186 phases=1 bus1=node_1266584186.4 bus2=node_1266584186.0 R=0.5 X=0
New Reactor.NEUTRO_node_1266584270 phases=1 bus1=node_1266584270.4 bus2=node_1266584270.0 R=0.5 X=0
New Reactor.NEUTRO_node_1267163975 phases=1 bus1=node_1267163975.4 bus2=node_1267163975.0 R=0.5 X=0
New Reactor.NEUTRO_node_1269431240 phases=1 bus1=node_1269431240.4 bus2=node_1269431240.0 R=0.5 X=0
New Reactor.NEUTRO_node_1272008640 phases=1 bus1=node_1272008640.4 bus2=node_1272008640.0 R=0.5 X=0
New Reactor.NEUTRO_node_1644288656 phases=1 bus1=node_1644288656.4 bus2=node_1644288656.0 R=0.5 X=0
New Reactor.NEUTRO_node_1761566675 phases=1 bus1=node_1761566675.4 bus2=node_1761566675.0 R=0.5 X=0
New Reactor.NEUTRO_node_1761567045 phases=1 bus1=node_1761567045.4 bus2=node_1761567045.0 R=0.5 X=0
New Reactor.NEUTRO_node_1860525845 phases=1 bus1=node_1860525845.4 bus2=node_1860525845.0 R=0.5 X=0
New Reactor.NEUTRO_node_1878668218 phases=1 bus1=node_1878668218.4 bus2=node_1878668218.0 R=0.5 X=0
New Reactor.NEUTRO_node_1902680053 phases=1 bus1=node_1902680053.4 bus2=node_1902680053.0 R=0.5 X=0
New Reactor.NEUTRO_node_1909498970 phases=1 bus1=node_1909498970.4 bus2=node_1909498970.0 R=0.5 X=0
New Reactor.NEUTRO_node_1919834656 phases=1 bus1=node_1919834656.4 bus2=node_1919834656.0 R=0.5 X=0
New Reactor.NEUTRO_node_1975596423 phases=1 bus1=node_1975596423.4 bus2=node_1975596423.0 R=0.5 X=0
New Reactor.NEUTRO_node_2041428053 phases=1 bus1=node_2041428053.4 bus2=node_2041428053.0 R=0.5 X=0
New Reactor.NEUTRO_node_2045975539 phases=1 bus1=node_2045975539.4 bus2=node_2045975539.0 R=0.5 X=0
New Reactor.NEUTRO_node_2080361511 phases=1 bus1=node_2080361511.4 bus2=node_2080361511.0 R=0.5 X=0
New Reactor.NEUTRO_node_2096000309 phases=1 bus1=node_2096000309.4 bus2=node_2096000309.0 R=0.5 X=0
New Reactor.NEUTRO_node_2172678467 phases=1 bus1=node_2172678467.4 bus2=node_2172678467.0 R=0.5 X=0
New Reactor.NEUTRO_node_2172678810 phases=1 bus1=node_2172678810.4 bus2=node_2172678810.0 R=0.5 X=0
New Reactor.NEUTRO_node_2192142893 phases=1 bus1=node_2192142893.4 bus2=node_2192142893.0 R=0.5 X=0
New Reactor.NEUTRO_node_2216438349 phases=1 bus1=node_2216438349.4 bus2=node_2216438349.0 R=0.5 X=0
New Reactor.NEUTRO_node_2216438350 phases=1 bus1=node_2216438350.4 bus2=node_2216438350.0 R=0.5 X=0
New Reactor.NEUTRO_node_2386811795 phases=1 bus1=node_2386811795.4 bus2=node_2386811795.0 R=0.5 X=0
New Reactor.NEUTRO_node_2386812069 phases=1 bus1=node_2386812069.4 bus2=node_2386812069.0 R=0.5 X=0
New Reactor.NEUTRO_node_2498379358 phases=1 bus1=node_2498379358.4 bus2=node_2498379358.0 R=0.5 X=0
New Reactor.NEUTRO_node_2503634226 phases=1 bus1=node_2503634226.4 bus2=node_2503634226.0 R=0.5 X=0
New Reactor.NEUTRO_node_2522892597 phases=1 bus1=node_2522892597.4 bus2=node_2522892597.0 R=0.5 X=0
New Reactor.NEUTRO_node_2528371791 phases=1 bus1=node_2528371791.4 bus2=node_2528371791.0 R=0.5 X=0
New Reactor.NEUTRO_node_2529814797 phases=1 bus1=node_2529814797.4 bus2=node_2529814797.0 R=0.5 X=0
New Reactor.NEUTRO_node_2736708838 phases=1 bus1=node_2736708838.4 bus2=node_2736708838.0 R=0.5 X=0
New Reactor.NEUTRO_node_2775280945 phases=1 bus1=node_2775280945.4 bus2=node_2775280945.0 R=0.5 X=0
New Reactor.NEUTRO_node_2841014058 phases=1 bus1=node_2841014058.4 bus2=node_2841014058.0 R=0.5 X=0
New Reactor.NEUTRO_node_3013341024 phases=1 bus1=node_3013341024.4 bus2=node_3013341024.0 R=0.5 X=0
New Reactor.NEUTRO_node_404860788 phases=1 bus1=node_404860788.4 bus2=node_404860788.0 R=0.5 X=0
New Reactor.NEUTRO_node_404860923 phases=1 bus1=node_404860923.4 bus2=node_404860923.0 R=0.5 X=0
New Reactor.NEUTRO_node_404861007 phases=1 bus1=node_404861007.4 bus2=node_404861007.0 R=0.5 X=0
New Reactor.NEUTRO_node_404862240 phases=1 bus1=node_404862240.4 bus2=node_404862240.0 R=0.5 X=0
New Reactor.NEUTRO_node_407845552 phases=1 bus1=node_407845552.4 bus2=node_407845552.0 R=0.5 X=0
New Reactor.NEUTRO_node_407845555 phases=1 bus1=node_407845555.4 bus2=node_407845555.0 R=0.5 X=0
New Reactor.NEUTRO_node_408135921 phases=1 bus1=node_408135921.4 bus2=node_408135921.0 R=0.5 X=0
New Reactor.NEUTRO_node_408207004 phases=1 bus1=node_408207004.4 bus2=node_408207004.0 R=0.5 X=0
New Reactor.NEUTRO_node_408207007 phases=1 bus1=node_408207007.4 bus2=node_408207007.0 R=0.5 X=0
New Reactor.NEUTRO_node_408207010 phases=1 bus1=node_408207010.4 bus2=node_408207010.0 R=0.5 X=0
New Reactor.NEUTRO_node_408207184 phases=1 bus1=node_408207184.4 bus2=node_408207184.0 R=0.5 X=0
New Reactor.NEUTRO_node_408207187 phases=1 bus1=node_408207187.4 bus2=node_408207187.0 R=0.5 X=0
New Reactor.NEUTRO_node_408207190 phases=1 bus1=node_408207190.4 bus2=node_408207190.0 R=0.5 X=0
New Reactor.NEUTRO_node_408207199 phases=1 bus1=node_408207199.4 bus2=node_408207199.0 R=0.5 X=0
New Reactor.NEUTRO_node_408207205 phases=1 bus1=node_408207205.4 bus2=node_408207205.0 R=0.5 X=0
New Reactor.NEUTRO_node_408207274 phases=1 bus1=node_408207274.4 bus2=node_408207274.0 R=0.5 X=0
New Reactor.NEUTRO_node_408207280 phases=1 bus1=node_408207280.4 bus2=node_408207280.0 R=0.5 X=0
New Reactor.NEUTRO_node_408207286 phases=1 bus1=node_408207286.4 bus2=node_408207286.0 R=0.5 X=0
New Reactor.NEUTRO_node_408207331 phases=1 bus1=node_408207331.4 bus2=node_408207331.0 R=0.5 X=0
New Reactor.NEUTRO_node_408207334 phases=1 bus1=node_408207334.4 bus2=node_408207334.0 R=0.5 X=0
New Reactor.NEUTRO_node_408207337 phases=1 bus1=node_408207337.4 bus2=node_408207337.0 R=0.5 X=0
New Reactor.NEUTRO_node_408207340 phases=1 bus1=node_408207340.4 bus2=node_408207340.0 R=0.5 X=0
New Reactor.NEUTRO_node_408207343 phases=1 bus1=node_408207343.4 bus2=node_408207343.0 R=0.5 X=0
New Reactor.NEUTRO_node_408207346 phases=1 bus1=node_408207346.4 bus2=node_408207346.0 R=0.5 X=0
New Reactor.NEUTRO_node_408207349 phases=1 bus1=node_408207349.4 bus2=node_408207349.0 R=0.5 X=0
New Reactor.NEUTRO_node_408207391 phases=1 bus1=node_408207391.4 bus2=node_408207391.0 R=0.5 X=0
New Reactor.NEUTRO_node_408207439 phases=1 bus1=node_408207439.4 bus2=node_408207439.0 R=0.5 X=0
New Reactor.NEUTRO_node_408207442 phases=1 bus1=node_408207442.4 bus2=node_408207442.0 R=0.5 X=0
New Reactor.NEUTRO_node_408207451 phases=1 bus1=node_408207451.4 bus2=node_408207451.0 R=0.5 X=0
New Reactor.NEUTRO_node_408207454 phases=1 bus1=node_408207454.4 bus2=node_408207454.0 R=0.5 X=0
New Reactor.NEUTRO_node_408207505 phases=1 bus1=node_408207505.4 bus2=node_408207505.0 R=0.5 X=0
New Reactor.NEUTRO_node_408207550 phases=1 bus1=node_408207550.4 bus2=node_408207550.0 R=0.5 X=0
New Reactor.NEUTRO_node_408207736 phases=1 bus1=node_408207736.4 bus2=node_408207736.0 R=0.5 X=0
New Reactor.NEUTRO_node_408207739 phases=1 bus1=node_408207739.4 bus2=node_408207739.0 R=0.5 X=0
New Reactor.NEUTRO_node_408207742 phases=1 bus1=node_408207742.4 bus2=node_408207742.0 R=0.5 X=0
New Reactor.NEUTRO_node_408207745 phases=1 bus1=node_408207745.4 bus2=node_408207745.0 R=0.5 X=0
New Reactor.NEUTRO_node_408207748 phases=1 bus1=node_408207748.4 bus2=node_408207748.0 R=0.5 X=0
New Reactor.NEUTRO_node_408207751 phases=1 bus1=node_408207751.4 bus2=node_408207751.0 R=0.5 X=0
New Reactor.NEUTRO_node_408207754 phases=1 bus1=node_408207754.4 bus2=node_408207754.0 R=0.5 X=0
New Reactor.NEUTRO_node_408207757 phases=1 bus1=node_408207757.4 bus2=node_408207757.0 R=0.5 X=0
New Reactor.NEUTRO_node_408207760 phases=1 bus1=node_408207760.4 bus2=node_408207760.0 R=0.5 X=0
New Reactor.NEUTRO_node_408207763 phases=1 bus1=node_408207763.4 bus2=node_408207763.0 R=0.5 X=0
New Reactor.NEUTRO_node_408207772 phases=1 bus1=node_408207772.4 bus2=node_408207772.0 R=0.5 X=0
New Reactor.NEUTRO_node_408207775 phases=1 bus1=node_408207775.4 bus2=node_408207775.0 R=0.5 X=0
New Reactor.NEUTRO_node_408207778 phases=1 bus1=node_408207778.4 bus2=node_408207778.0 R=0.5 X=0
New Reactor.NEUTRO_node_408207781 phases=1 bus1=node_408207781.4 bus2=node_408207781.0 R=0.5 X=0
New Reactor.NEUTRO_node_408207835 phases=1 bus1=node_408207835.4 bus2=node_408207835.0 R=0.5 X=0
New Reactor.NEUTRO_node_408207838 phases=1 bus1=node_408207838.4 bus2=node_408207838.0 R=0.5 X=0
New Reactor.NEUTRO_node_408207844 phases=1 bus1=node_408207844.4 bus2=node_408207844.0 R=0.5 X=0
New Reactor.NEUTRO_node_408207862 phases=1 bus1=node_408207862.4 bus2=node_408207862.0 R=0.5 X=0
New Reactor.NEUTRO_node_408207874 phases=1 bus1=node_408207874.4 bus2=node_408207874.0 R=0.5 X=0
New Reactor.NEUTRO_node_408207877 phases=1 bus1=node_408207877.4 bus2=node_408207877.0 R=0.5 X=0
New Reactor.NEUTRO_node_408207880 phases=1 bus1=node_408207880.4 bus2=node_408207880.0 R=0.5 X=0
New Reactor.NEUTRO_node_408207883 phases=1 bus1=node_408207883.4 bus2=node_408207883.0 R=0.5 X=0
New Reactor.NEUTRO_node_408207886 phases=1 bus1=node_408207886.4 bus2=node_408207886.0 R=0.5 X=0
New Reactor.NEUTRO_node_408207889 phases=1 bus1=node_408207889.4 bus2=node_408207889.0 R=0.5 X=0
New Reactor.NEUTRO_node_408207892 phases=1 bus1=node_408207892.4 bus2=node_408207892.0 R=0.5 X=0
New Reactor.NEUTRO_node_408207895 phases=1 bus1=node_408207895.4 bus2=node_408207895.0 R=0.5 X=0
New Reactor.NEUTRO_node_408207898 phases=1 bus1=node_408207898.4 bus2=node_408207898.0 R=0.5 X=0
New Reactor.NEUTRO_node_408207955 phases=1 bus1=node_408207955.4 bus2=node_408207955.0 R=0.5 X=0
New Reactor.NEUTRO_node_408207958 phases=1 bus1=node_408207958.4 bus2=node_408207958.0 R=0.5 X=0
New Reactor.NEUTRO_node_408207961 phases=1 bus1=node_408207961.4 bus2=node_408207961.0 R=0.5 X=0
New Reactor.NEUTRO_node_408207964 phases=1 bus1=node_408207964.4 bus2=node_408207964.0 R=0.5 X=0
New Reactor.NEUTRO_node_408207967 phases=1 bus1=node_408207967.4 bus2=node_408207967.0 R=0.5 X=0
New Reactor.NEUTRO_node_408207970 phases=1 bus1=node_408207970.4 bus2=node_408207970.0 R=0.5 X=0
New Reactor.NEUTRO_node_408207979 phases=1 bus1=node_408207979.4 bus2=node_408207979.0 R=0.5 X=0
New Reactor.NEUTRO_node_408207982 phases=1 bus1=node_408207982.4 bus2=node_408207982.0 R=0.5 X=0
New Reactor.NEUTRO_node_408207985 phases=1 bus1=node_408207985.4 bus2=node_408207985.0 R=0.5 X=0
New Reactor.NEUTRO_node_408207988 phases=1 bus1=node_408207988.4 bus2=node_408207988.0 R=0.5 X=0
New Reactor.NEUTRO_node_408207991 phases=1 bus1=node_408207991.4 bus2=node_408207991.0 R=0.5 X=0
New Reactor.NEUTRO_node_408207994 phases=1 bus1=node_408207994.4 bus2=node_408207994.0 R=0.5 X=0
New Reactor.NEUTRO_node_408207997 phases=1 bus1=node_408207997.4 bus2=node_408207997.0 R=0.5 X=0
New Reactor.NEUTRO_node_408208000 phases=1 bus1=node_408208000.4 bus2=node_408208000.0 R=0.5 X=0
New Reactor.NEUTRO_node_408208021 phases=1 bus1=node_408208021.4 bus2=node_408208021.0 R=0.5 X=0
New Reactor.NEUTRO_node_408208024 phases=1 bus1=node_408208024.4 bus2=node_408208024.0 R=0.5 X=0
New Reactor.NEUTRO_node_408208027 phases=1 bus1=node_408208027.4 bus2=node_408208027.0 R=0.5 X=0
New Reactor.NEUTRO_node_408208030 phases=1 bus1=node_408208030.4 bus2=node_408208030.0 R=0.5 X=0
New Reactor.NEUTRO_node_408208033 phases=1 bus1=node_408208033.4 bus2=node_408208033.0 R=0.5 X=0
New Reactor.NEUTRO_node_408208036 phases=1 bus1=node_408208036.4 bus2=node_408208036.0 R=0.5 X=0
New Reactor.NEUTRO_node_408208039 phases=1 bus1=node_408208039.4 bus2=node_408208039.0 R=0.5 X=0
New Reactor.NEUTRO_node_408208042 phases=1 bus1=node_408208042.4 bus2=node_408208042.0 R=0.5 X=0
New Reactor.NEUTRO_node_408208045 phases=1 bus1=node_408208045.4 bus2=node_408208045.0 R=0.5 X=0
New Reactor.NEUTRO_node_408208048 phases=1 bus1=node_408208048.4 bus2=node_408208048.0 R=0.5 X=0
New Reactor.NEUTRO_node_408208054 phases=1 bus1=node_408208054.4 bus2=node_408208054.0 R=0.5 X=0
New Reactor.NEUTRO_node_408208057 phases=1 bus1=node_408208057.4 bus2=node_408208057.0 R=0.5 X=0
New Reactor.NEUTRO_node_408208180 phases=1 bus1=node_408208180.4 bus2=node_408208180.0 R=0.5 X=0
New Reactor.NEUTRO_node_408208183 phases=1 bus1=node_408208183.4 bus2=node_408208183.0 R=0.5 X=0
New Reactor.NEUTRO_node_408208189 phases=1 bus1=node_408208189.4 bus2=node_408208189.0 R=0.5 X=0
New Reactor.NEUTRO_node_408208192 phases=1 bus1=node_408208192.4 bus2=node_408208192.0 R=0.5 X=0
New Reactor.NEUTRO_node_408208198 phases=1 bus1=node_408208198.4 bus2=node_408208198.0 R=0.5 X=0
New Reactor.NEUTRO_node_408208204 phases=1 bus1=node_408208204.4 bus2=node_408208204.0 R=0.5 X=0
New Reactor.NEUTRO_node_408208210 phases=1 bus1=node_408208210.4 bus2=node_408208210.0 R=0.5 X=0
New Reactor.NEUTRO_node_408208213 phases=1 bus1=node_408208213.4 bus2=node_408208213.0 R=0.5 X=0
New Reactor.NEUTRO_node_408208216 phases=1 bus1=node_408208216.4 bus2=node_408208216.0 R=0.5 X=0
New Reactor.NEUTRO_node_408208219 phases=1 bus1=node_408208219.4 bus2=node_408208219.0 R=0.5 X=0
New Reactor.NEUTRO_node_408208222 phases=1 bus1=node_408208222.4 bus2=node_408208222.0 R=0.5 X=0
New Reactor.NEUTRO_node_408208258 phases=1 bus1=node_408208258.4 bus2=node_408208258.0 R=0.5 X=0
New Reactor.NEUTRO_node_408208261 phases=1 bus1=node_408208261.4 bus2=node_408208261.0 R=0.5 X=0
New Reactor.NEUTRO_node_408208267 phases=1 bus1=node_408208267.4 bus2=node_408208267.0 R=0.5 X=0
New Reactor.NEUTRO_node_408208276 phases=1 bus1=node_408208276.4 bus2=node_408208276.0 R=0.5 X=0
New Reactor.NEUTRO_node_408208285 phases=1 bus1=node_408208285.4 bus2=node_408208285.0 R=0.5 X=0
New Reactor.NEUTRO_node_408208288 phases=1 bus1=node_408208288.4 bus2=node_408208288.0 R=0.5 X=0
New Reactor.NEUTRO_node_408208294 phases=1 bus1=node_408208294.4 bus2=node_408208294.0 R=0.5 X=0
New Reactor.NEUTRO_node_408208297 phases=1 bus1=node_408208297.4 bus2=node_408208297.0 R=0.5 X=0
New Reactor.NEUTRO_node_408208300 phases=1 bus1=node_408208300.4 bus2=node_408208300.0 R=0.5 X=0
New Reactor.NEUTRO_node_408208303 phases=1 bus1=node_408208303.4 bus2=node_408208303.0 R=0.5 X=0
New Reactor.NEUTRO_node_408208306 phases=1 bus1=node_408208306.4 bus2=node_408208306.0 R=0.5 X=0
New Reactor.NEUTRO_node_408208309 phases=1 bus1=node_408208309.4 bus2=node_408208309.0 R=0.5 X=0
New Reactor.NEUTRO_node_408208312 phases=1 bus1=node_408208312.4 bus2=node_408208312.0 R=0.5 X=0
New Reactor.NEUTRO_node_408208315 phases=1 bus1=node_408208315.4 bus2=node_408208315.0 R=0.5 X=0
New Reactor.NEUTRO_node_408208318 phases=1 bus1=node_408208318.4 bus2=node_408208318.0 R=0.5 X=0
New Reactor.NEUTRO_node_408208330 phases=1 bus1=node_408208330.4 bus2=node_408208330.0 R=0.5 X=0
New Reactor.NEUTRO_node_408208408 phases=1 bus1=node_408208408.4 bus2=node_408208408.0 R=0.5 X=0
New Reactor.NEUTRO_node_408208411 phases=1 bus1=node_408208411.4 bus2=node_408208411.0 R=0.5 X=0
New Reactor.NEUTRO_node_408208414 phases=1 bus1=node_408208414.4 bus2=node_408208414.0 R=0.5 X=0
New Reactor.NEUTRO_node_408208417 phases=1 bus1=node_408208417.4 bus2=node_408208417.0 R=0.5 X=0
New Reactor.NEUTRO_node_408208420 phases=1 bus1=node_408208420.4 bus2=node_408208420.0 R=0.5 X=0
New Reactor.NEUTRO_node_408208426 phases=1 bus1=node_408208426.4 bus2=node_408208426.0 R=0.5 X=0
New Reactor.NEUTRO_node_408208429 phases=1 bus1=node_408208429.4 bus2=node_408208429.0 R=0.5 X=0
New Reactor.NEUTRO_node_408208432 phases=1 bus1=node_408208432.4 bus2=node_408208432.0 R=0.5 X=0
New Reactor.NEUTRO_node_408208690 phases=1 bus1=node_408208690.4 bus2=node_408208690.0 R=0.5 X=0
New Reactor.NEUTRO_node_408208693 phases=1 bus1=node_408208693.4 bus2=node_408208693.0 R=0.5 X=0
New Reactor.NEUTRO_node_408208696 phases=1 bus1=node_408208696.4 bus2=node_408208696.0 R=0.5 X=0
New Reactor.NEUTRO_node_408208699 phases=1 bus1=node_408208699.4 bus2=node_408208699.0 R=0.5 X=0
New Reactor.NEUTRO_node_408208702 phases=1 bus1=node_408208702.4 bus2=node_408208702.0 R=0.5 X=0
New Reactor.NEUTRO_node_408208708 phases=1 bus1=node_408208708.4 bus2=node_408208708.0 R=0.5 X=0
New Reactor.NEUTRO_node_408208711 phases=1 bus1=node_408208711.4 bus2=node_408208711.0 R=0.5 X=0
New Reactor.NEUTRO_node_408208714 phases=1 bus1=node_408208714.4 bus2=node_408208714.0 R=0.5 X=0
New Reactor.NEUTRO_node_408208717 phases=1 bus1=node_408208717.4 bus2=node_408208717.0 R=0.5 X=0
New Reactor.NEUTRO_node_408208720 phases=1 bus1=node_408208720.4 bus2=node_408208720.0 R=0.5 X=0
New Reactor.NEUTRO_node_408208912 phases=1 bus1=node_408208912.4 bus2=node_408208912.0 R=0.5 X=0
New Reactor.NEUTRO_node_408209050 phases=1 bus1=node_408209050.4 bus2=node_408209050.0 R=0.5 X=0
New Reactor.NEUTRO_node_408209053 phases=1 bus1=node_408209053.4 bus2=node_408209053.0 R=0.5 X=0
New Reactor.NEUTRO_node_408269484 phases=1 bus1=node_408269484.4 bus2=node_408269484.0 R=0.5 X=0
New Reactor.NEUTRO_node_408269487 phases=1 bus1=node_408269487.4 bus2=node_408269487.0 R=0.5 X=0
New Reactor.NEUTRO_node_408269490 phases=1 bus1=node_408269490.4 bus2=node_408269490.0 R=0.5 X=0
New Reactor.NEUTRO_node_408269493 phases=1 bus1=node_408269493.4 bus2=node_408269493.0 R=0.5 X=0
New Reactor.NEUTRO_node_408269496 phases=1 bus1=node_408269496.4 bus2=node_408269496.0 R=0.5 X=0
New Reactor.NEUTRO_node_408269520 phases=1 bus1=node_408269520.4 bus2=node_408269520.0 R=0.5 X=0
New Reactor.NEUTRO_node_408269529 phases=1 bus1=node_408269529.4 bus2=node_408269529.0 R=0.5 X=0
New Reactor.NEUTRO_node_408269562 phases=1 bus1=node_408269562.4 bus2=node_408269562.0 R=0.5 X=0
New Reactor.NEUTRO_node_408269568 phases=1 bus1=node_408269568.4 bus2=node_408269568.0 R=0.5 X=0
New Reactor.NEUTRO_node_408269604 phases=1 bus1=node_408269604.4 bus2=node_408269604.0 R=0.5 X=0
New Reactor.NEUTRO_node_408667517 phases=1 bus1=node_408667517.4 bus2=node_408667517.0 R=0.5 X=0
New Reactor.NEUTRO_node_409042548 phases=1 bus1=node_409042548.4 bus2=node_409042548.0 R=0.5 X=0
New Reactor.NEUTRO_node_409043343 phases=1 bus1=node_409043343.4 bus2=node_409043343.0 R=0.5 X=0
New Reactor.NEUTRO_node_409043352 phases=1 bus1=node_409043352.4 bus2=node_409043352.0 R=0.5 X=0
New Reactor.NEUTRO_node_409043406 phases=1 bus1=node_409043406.4 bus2=node_409043406.0 R=0.5 X=0
New Reactor.NEUTRO_node_409043412 phases=1 bus1=node_409043412.4 bus2=node_409043412.0 R=0.5 X=0
...
